   15
optimized
O      -1.329884370e+00  -2.135485216e+01  -4.164951687e-01
H      -1.809790038e+00  -2.149399686e+01  -1.232486202e+00
H      -1.705945610e+00  -2.054506664e+01  -2.544572269e-02
O      -2.257990199e+00  -1.901782648e+01   6.793510313e-01
H      -2.704784385e+00  -1.901130885e+01   1.525028956e+00
H      -1.558654455e+00  -1.834287511e+01   7.426887411e-01
O      -1.602333049e-01  -1.723110898e+01   7.079685710e-01
H       6.494851534e-01  -1.766424902e+01   3.800597896e-01
H       1.210283733e-01  -1.667375406e+01   1.432513356e+00
O       2.054361891e+00  -1.856657419e+01  -2.028414245e-01
H       2.455461476e+00  -1.832267285e+01  -1.036660618e+00
H       1.880886391e+00  -1.952375786e+01  -2.675792310e-01
O       1.406165420e+00  -2.122111577e+01  -4.110703366e-01
H       1.728913514e+00  -2.188825448e+01   1.937629198e-01
H       4.368801410e-01  -2.132578670e+01  -4.283946607e-01
