18
 
O   -1.5105882883   -0.1934977520   1.4384488611
H   -2.0136221818   -0.4180764444   2.2215780389
H   -0.6410982990   -0.6348262202   1.5601238038
O   -1.7701666970   -0.4123188764   -1.3368745454
H   -2.5340708456   -0.8591113633   -1.7022333046
H   -1.8646217291   -0.4537169669   -0.3688511786
O   -0.5538460336   2.0153938196   -0.1195048350
H   -0.9342792790   1.6018315016   -0.9011730715
H   -0.9092819706   1.4953596994   0.6141959252
O   0.9476327314   -1.2285848041   1.4191364833
H   1.5329680565   -0.4646706380   1.4076185741
H   0.9342222129   -1.5014142093   0.4835240164
O   0.9676891201   -1.3278797568   -1.3102544861
H   1.4506600899   -0.5008588130   -1.1618531899
H   0.0542281173   -1.0680662978   -1.4959573289
O   2.0282915217   1.0933923046   -0.1344023336
H   2.6957012398   1.7423896168   -0.3566952587
H   1.1777422344   1.5719112002   -0.1400341706
