18
 
O   0.8495501486   -1.7349906558   -0.4954576148
H   1.1071033112   -2.5926142725   -0.8421127359
H   1.7022738261   -1.2685822163   -0.3546895108
O   -0.7215667462   0.4041266644   -1.6367089188
H   -1.5927581631   0.2629618629   -1.2205589989
H   -0.2698918648   -0.4401237767   -1.4736114011
O   0.6092992985   1.8082855733   0.2079254798
H   0.5189558486   2.7635992999   0.1673435310
H   0.0845520739   1.4992906326   -0.5701167220
O   -0.6595481528   -0.4286545737   1.6118247321
H   -0.2536928667   0.4275486359   1.4056504544
H   -0.1820147424   -1.0413228737   1.0293680892
O   2.7759256328   0.0713529607   0.1690241943
H   3.2225777735   0.0501633396   1.0184866591
H   2.1527351745   0.8211620944   0.2468836957
O   -2.8813599429   -0.1141235249   0.0680942940
H   -3.6778374847   -0.6123120901   0.2600928439
H   -2.2739071240   -0.3268000798   0.8089379286
