15
testcomment
O   -1.357432   -21.339737   -0.218428
H   -1.758062   -21.561542   -1.061110
H   -1.692562   -20.461751   0.019304
O   -2.239551   -18.909218   0.588654
H   -2.601914   -18.974440   1.473730
H   -1.495666   -18.289022   0.636907
O   -0.104442   -17.241200   0.611958
H   0.695342   -17.752633   0.415535
H   0.019311   -16.873892   1.488585
O   2.072696   -18.657787   -0.130119
H   2.417667   -18.267446   -0.935205
H   1.814154   -19.563965   -0.357655
O   1.308972   -21.210161   -0.567524
H   1.765090   -21.778893   0.055175
H   0.362296   -21.301513   -0.379408
