18
testcomment
O   0.8207853911   -1.7037094809   -0.5318844915
H   1.0441966854   -2.5667345876   -0.8298573558
H   1.6396068896   -1.2406566527   -0.3777741067
O   -0.8192495397   0.3972799025   -1.5998395672
H   -1.6229448944   0.3000547995   -1.0955905795
H   -0.3559488977   -0.4240118324   -1.4972636637
O   0.5854300573   1.7931009471   0.1634427603
H   0.5380988378   2.7307038041   0.1149725148
H   0.0540439111   1.4595717540   -0.5594740337
O   -0.5351777833   -0.3889970773   1.6191244759
H   -0.1601983889   0.4557630783   1.4063665655
H   -0.1304244591   -0.9998048447   1.0167721584
O   2.7173098374   0.0897001298   0.2218089323
H   2.8859616709   -0.0884860411   1.1303243177
H   2.1252241591   0.8356497134   0.1966763990
O   -2.8099786134   -0.0327000971   0.1809890344
H   -3.3115364009   -0.8077400948   0.0065616981
H   -2.1548024623   -0.2600164201   0.8350209418
