    6
optimized
O      -1.550532360e+00  -8.272402901e-01   5.325481142e-01
H      -6.290053296e-01  -8.805994849e-01   2.540726995e-01
H      -1.997105808e+00  -1.511765908e+00   3.483004510e-02
O       1.288027004e+00  -7.520817903e-01  -1.119173261e-01
H       1.507153032e+00   1.301248378e-01  -4.161032276e-01
H       1.786663462e+00  -8.631373645e-01   6.991696948e-01
