18
 
O   0.1228062657   1.5663230661   0.9520197310
H   0.3216902872   2.1216744250   1.7068405135
H   0.9572251899   1.5247937522   0.4420307086
O   -0.0563579740   -1.3409762564   0.9735867586
H   -0.8585502599   -1.4872922868   0.4445063583
H   -0.0638066173   -0.3938182680   1.1664233153
O   -2.2819612789   1.3744207147   -0.4732306751
H   -2.1929035659   1.8134515495   -1.3194582655
H   -1.4422363024   1.5210469615   -0.0059511025
O   -2.4358075236   -1.3975171830   -0.4792624756
H   -3.2132161746   -1.7127620863   -0.0183291861
H   -2.5099201319   -0.4272001864   -0.5001153967
O   2.3615508706   1.2015006939   -0.5307169918
H   2.4325689141   1.5005382303   -1.4373487232
H   2.3902649671   0.2250684694   -0.5826784072
O   2.2314857679   -1.5065661871   -0.4573742713
H   2.8781777264   -2.0270440566   0.0192059145
H   1.4080808396   -1.5761023519   0.0674321952
