9
 
O   7.9554332058   -1.9864319904   -0.1609821789
H   7.5858608639   -2.4919961645   0.5629357935
H   8.8830588663   -2.2650941022   -0.2490952289
O   10.7548316662   -1.9045041837   -0.2495187451
H   11.3406227593   -2.2413470967   0.4281212378
H   10.5292812935   -0.9941864715   0.0098653195
O   9.3073662886   0.4057995860   0.3248492382
H   9.2168530619   1.0680128730   -0.3605416907
H   8.6003919945   -0.2446524500   0.1710662546
