   15
optimized
O      -1.307392705e+00  -2.131887592e+01  -5.604758150e-01
H      -1.910585811e+00  -2.147450286e+01  -1.282777311e+00
H      -1.669952431e+00  -2.056160948e+01  -7.133141704e-02
O      -2.235001049e+00  -1.911844457e+01   8.020012698e-01
H      -2.762363506e+00  -1.896874286e+01   1.582350265e+00
H      -1.536840678e+00  -1.844280243e+01   8.186823549e-01
O      -1.739611843e-01  -1.729869091e+01   8.425234706e-01
H       6.211836273e-01  -1.770280290e+01   4.574183835e-01
H       1.001042238e-01  -1.644777867e+01   1.173590410e+00
O       2.026156789e+00  -1.852808358e+01  -2.635457884e-01
H       2.601814625e+00  -1.835844359e+01  -1.004859545e+00
H       1.857746920e+00  -1.948497767e+01  -2.752851691e-01
O       1.429831341e+00  -2.121137961e+01  -3.240109951e-01
H       1.697967654e+00  -2.197733799e+01   1.771211696e-01
H       4.671921863e-01  -2.128872697e+01  -4.310012838e-01
