15
testcomment
O   -1.3453928951   -21.2843104292   -0.4316924249
H   -1.8160548211   -21.3481058795   -1.2427660487
H   -1.6705634282   -20.5007618937   0.0032538946
O   -2.1913679271   -19.0532594087   0.8336086007
H   -2.2127380132   -19.1596510188   1.7672407524
H   -1.5395169828   -18.3811363221   0.6509268070
O   -0.2336811012   -17.2469438698   0.3763569570
H   0.5774072347   -17.7385125083   0.2788016928
H   -0.0988605368   -16.6557408970   1.0937718902
O   2.0462921631   -18.6478060704   0.0623790940
H   2.5067873726   -18.3540840721   -0.7028448717
H   1.8193752378   -19.5595699540   -0.1018319690
O   1.3437316191   -21.1790877150   -0.5093159086
H   1.6291759999   -21.8489484781   0.0849334492
H   0.3913060783   -21.2252814835   -0.5224219150
