12
testcomment
O   -1.1164173908   -10.9039846888   -0.3872507251
H   -1.2833549613   -9.9656364210   -0.2413370199
H   -1.3811229442   -11.0647814789   -1.2856541628
O   1.5210887769   -10.9422148288   0.2167107553
H   1.6745223879   -11.4493039622   1.0056164006
H   0.5892206377   -11.0776372806   0.0094935575
O   1.5064584229   -8.2417880170   0.3903507560
H   2.0216164107   -7.8604053740   -0.3112281126
H   1.6605921571   -9.1914132581   0.3262326601
O   -1.1899621524   -8.2554467056   0.1627561633
H   -1.5938482668   -7.9689433418   0.9738327388
H   -0.2452901832   -8.1087472795   0.2881777954
