15
 
O   -1.3255009289   -21.3280380629   -0.5104045935
H   -1.8256650564   -21.4515129282   -1.3198786413
H   -1.7309328637   -20.5273991789   -0.1143676185
O   -2.2553417669   -19.0719595333   0.7191057367
H   -2.5521602071   -19.0909743037   1.6311705719
H   -1.5597300423   -18.3829703093   0.7215504380
O   -0.1707862990   -17.2588263765   0.7444240160
H   0.6719061930   -17.6605675549   0.4434481862
H   0.1168180324   -16.5497894950   1.3227112803
O   2.0400786564   -18.5513305199   -0.2189379957
H   2.4204807702   -18.3516898637   -1.0768411282
H   1.8686358019   -19.5152312549   -0.2706325253
O   1.4011091384   -21.2110387647   -0.3290243847
H   1.6782019600   -21.9018279074   0.2764054618
H   0.4287866120   -21.3300439468   -0.3783288039
