15
 
O   -1.3407776680   -21.3781513548   -0.3626094092
H   -1.8231705561   -21.5509351216   -1.1732775661
H   -1.7011836231   -20.5513994437   -0.0083085701
O   -2.2784726892   -18.9875918121   0.6357841706
H   -2.7156147333   -18.9577445283   1.4885693917
H   -1.5661614288   -18.3313975048   0.6732364215
O   -0.1475792885   -17.2282606572   0.7202528510
H   0.6518313235   -17.6695735758   0.3958321076
H   0.1163381509   -16.7504825018   1.5083252633
O   2.0744000139   -18.5627805426   -0.2074084622
H   2.4608717708   -18.2977891625   -1.0441531339
H   1.8781607536   -19.5079907810   -0.2914922661
O   1.4063198199   -21.2232093674   -0.4452429861
H   1.7489269783   -21.8691502088   0.1752219378
H   0.4420111761   -21.3167434374   -0.4243297497
