18
testcomment
O   0.1312552593   1.4999378162   0.9594353708
H   0.3074824722   2.0814149162   1.6910567010
H   0.9403009957   1.5005493129   0.4311943205
O   -0.0590263603   -1.3734894734   0.9008505801
H   -0.8548649589   -1.5098185455   0.3791811766
H   -0.0834807115   -0.4456370173   1.1352687075
O   -2.2504076579   1.3830892452   -0.4672364479
H   -2.1327852254   1.8170842488   -1.3046344597
H   -1.4247714012   1.5222233105   0.0061904166
O   -2.4344530875   -1.3530044168   -0.4692882933
H   -3.1819648198   -1.6372679054   0.0436284849
H   -2.5098900539   -0.3944812375   -0.5080900034
O   2.3164803284   1.1957299250   -0.5549161654
H   2.3050525618   1.4636762753   -1.4664723545
H   2.4015311879   0.2341879617   -0.5796801486
O   2.2610099552   -1.4747361585   -0.4065509209
H   2.8982534477   -1.9372843589   0.1250622021
H   1.4193649115   -1.5926630908   0.0526041727
