   12
optimized
O      -1.137478568e+00  -1.094788950e+01  -3.423702041e-01
H      -1.311197905e+00  -9.999616322e+00  -2.000453030e-01
H      -1.515972134e+00  -1.115496359e+01  -1.196473035e+00
O       1.566174265e+00  -1.094876249e+01   1.686031037e-01
H       1.769591027e+00  -1.155102137e+01   8.838195541e-01
H       6.243767058e-01  -1.109199081e+01  -3.672545934e-02
O       1.511425982e+00  -8.212014647e+00   4.479719873e-01
H       2.119101952e+00  -7.802366121e+00  -1.672895054e-01
H       1.673578388e+00  -9.170511843e+00   3.798065177e-01
O      -1.218955012e+00  -8.234766691e+00   1.083617798e-01
H      -1.651554178e+00  -7.835082252e+00   8.625096526e-01
H      -2.655905217e-01  -8.081314362e+00   2.395309115e-01
