15
testcomment
O   -1.3422677703   -21.3199610203   -0.4244001488
H   -1.7764272730   -21.4189885876   -1.2639692399
H   -1.7059502440   -20.5083399875   -0.0533379170
O   -2.2304531839   -19.0312168318   0.7227946421
H   -2.4543746356   -19.1034640070   1.6435153657
H   -1.5468926877   -18.3526916702   0.6840579941
O   -0.1846370917   -17.2400697890   0.5813819370
H   0.6343025641   -17.7026036709   0.3708195952
H   0.0326204983   -16.6923273030   1.3264248704
O   2.0457104183   -18.6047815275   -0.1248528868
H   2.4395291159   -18.3249300652   -0.9432492991
H   1.8456154776   -19.5382296194   -0.2559572011
O   1.3649555223   -21.2103506928   -0.4275852675
H   1.6784248083   -21.8323681515   0.2188119765
H   0.4057462908   -21.3028829336   -0.4140534418
