   15
optimized
O      -1.331150823e+00  -2.135498600e+01  -4.093429128e-01
H      -1.802814799e+00  -2.148738102e+01  -1.231655203e+00
H      -1.705375547e+00  -2.054147147e+01  -2.288946984e-02
O      -2.261290006e+00  -1.901511557e+01   6.758261108e-01
H      -2.691509079e+00  -1.902190202e+01   1.530434322e+00
H      -1.558533841e+00  -1.834293900e+01   7.392292972e-01
O      -1.610757158e-01  -1.723689229e+01   7.017432938e-01
H       6.511643357e-01  -1.767126778e+01   3.801230115e-01
H       1.186906216e-01  -1.666989482e+01   1.419550601e+00
O       2.059197811e+00  -1.856977545e+01  -1.943300070e-01
H       2.444941648e+00  -1.832250905e+01  -1.034818841e+00
H       1.880483073e+00  -1.952619647e+01  -2.643344496e-01
O       1.404152396e+00  -2.122041206e+01  -4.173260323e-01
H       1.725100707e+00  -2.188046922e+01   1.967473929e-01
H       4.339192162e-01  -2.132198778e+01  -4.285571148e-01
