   18
optimized
O      -1.521306493e+00  -1.908720214e-01   1.458473135e+00
H      -2.022353684e+00  -4.243775544e-01   2.238587421e+00
H      -6.264977010e-01  -5.893585140e-01   1.565434409e+00
O      -1.757828394e+00  -3.863296897e-01  -1.295001869e+00
H      -2.510952047e+00  -7.863997173e-01  -1.729892063e+00
H      -1.903458471e+00  -4.909193447e-01  -3.408325369e-01
O      -5.595710602e-01   2.014429805e+00  -1.313942131e-01
H      -9.737015396e-01   1.569803337e+00  -8.797582414e-01
H      -9.553644352e-01   1.558180558e+00   6.225718389e-01
O       9.624394758e-01  -1.159618556e+00   1.428782325e+00
H       1.540665927e+00  -3.933985473e-01   1.334726318e+00
H       9.807242981e-01  -1.525941298e+00   5.274566385e-01
O       9.852299762e-01  -1.386938335e+00  -1.366115099e+00
H       1.475847318e+00  -5.599260989e-01  -1.287291830e+00
H       7.708176974e-02  -1.110650007e+00  -1.541894189e+00
O       2.013796887e+00   1.060189996e+00  -1.180002447e-01
H       2.691583031e+00   1.725155107e+00  -2.355038784e-01
H       1.161225140e+00   1.534226881e+00  -1.335559179e-01
