18
testcomment
O   -1.4829662918   -0.1862742693   1.4440037164
H   -2.0082320935   -0.4492600867   2.1911019914
H   -0.6192576862   -0.6052267187   1.5743961873
O   -1.7278873553   -0.3846120972   -1.2937826145
H   -2.5307312905   -0.7183740007   -1.6780423313
H   -1.8445736657   -0.4608996929   -0.3400272282
O   -0.5584664440   1.9674818728   -0.1613420225
H   -0.9440726196   1.5003653438   -0.9011095389
H   -0.9438379327   1.5336146243   0.6002617315
O   0.9582215933   -1.1504114680   1.3710376090
H   1.5173804702   -0.3843415568   1.2489071884
H   0.9598760122   -1.5591976364   0.5003914638
O   0.9644567076   -1.3638811434   -1.2840151888
H   1.4527373178   -0.5454937965   -1.1841384801
H   0.0711790360   -1.0893396917   -1.4929923413
O   1.9816636397   1.0702725696   -0.1087978325
H   2.6613579211   1.7231695581   -0.2286531785
H   1.1507111077   1.5596639536   -0.1404079167
