   18
optimized
O      -1.592897778e+00  -2.418881212e-01   1.470805797e+00
H      -2.041945335e+00  -4.463872149e-01   2.285899378e+00
H      -6.898024679e-01  -5.973595752e-01   1.552553069e+00
O      -1.743870811e+00  -3.835324917e-01  -1.346423908e+00
H      -2.572686797e+00  -7.035728781e-01  -1.694083725e+00
H      -1.815852087e+00  -4.249816663e-01  -3.789468534e-01
O      -5.687304527e-01   1.953956316e+00  -1.433880307e-01
H      -9.458857530e-01   1.441186812e+00  -8.689037541e-01
H      -9.264173989e-01   1.520437640e+00   6.409450494e-01
O       9.858377010e-01  -1.117410826e+00   1.412845284e+00
H       1.527719860e+00  -3.364642501e-01   1.248596781e+00
H       9.634957304e-01  -1.548331018e+00   5.455951420e-01
O       9.838254770e-01  -1.371802329e+00  -1.370961729e+00
H       1.461307794e+00  -5.600241061e-01  -1.157143942e+00
H       7.254994065e-02  -1.097466006e+00  -1.532337914e+00
O       2.063299526e+00   1.085543032e+00  -1.208512055e-01
H       2.705625356e+00   1.770973308e+00  -2.841002437e-01
H       1.191987495e+00   1.514379375e+00  -1.433071943e-01
