   18
optimized
O       3.812057479e-02   2.656699383e+00   3.453986099e-01
H      -7.833420155e-01   2.207019095e+00   8.742727047e-02
H      -1.984316259e-01   3.234012671e+00   1.066790233e+00
O      -2.319773269e+00  -1.295349502e+00   3.457272568e-01
H      -2.701349434e+00  -1.788894017e+00   1.067161173e+00
H      -1.519648947e+00  -1.781907078e+00   8.760877898e-02
O       2.319772555e+00   1.295349073e+00  -3.457310962e-01
H       1.519649034e+00   1.781906887e+00  -8.761057449e-02
H       2.701345706e+00   1.788892140e+00  -1.067167595e+00
O      -3.811946318e-02  -2.656699735e+00  -3.453965863e-01
H       1.984337528e-01  -3.234014713e+00  -1.066786525e+00
H       7.833427797e-01  -2.207018882e+00  -8.742513641e-02
O       2.281748424e+00  -1.361319591e+00   3.453087080e-01
H       2.303015595e+00  -4.251040561e-01   8.721852846e-02
H       2.900074677e+00  -1.445026191e+00   1.066640324e+00
O      -2.281748078e+00   1.361320724e+00  -3.453068428e-01
H      -2.303015408e+00   4.251046244e-01  -8.721873489e-02
H      -2.900074863e+00   1.445029166e+00  -1.066637791e+00
