18
testcomment
O   0.184753   1.512640   0.873910
H   0.293608   2.114767   1.613803
H   1.033909   1.511065   0.398492
O   -0.106179   -1.308754   0.915041
H   -0.890982   -1.464793   0.372814
H   -0.098013   -0.359500   1.082499
O   -2.294011   1.388948   -0.412085
H   -2.284047   1.749995   -1.300592
H   -1.406437   1.511140   -0.047292
O   -2.475654   -1.346504   -0.499884
H   -3.161921   -1.691593   0.071806
H   -2.547059   -0.380725   -0.466472
O   2.438873   1.142442   -0.510753
H   2.406312   1.473052   -1.410733
H   2.445710   0.172879   -0.573028
O   2.220637   -1.522291   -0.393281
H   2.897592   -1.939709   0.140724
H   1.392002   -1.583522   0.112611
