18
testcomment
O   -0.073612   2.701084   0.141823
H   -0.881799   2.166097   0.107186
H   -0.079185   3.146673   0.990892
O   -2.302499   -1.414609   0.141273
H   -2.686382   -1.639229   0.991262
H   -1.434394   -1.846778   0.109706
O   2.302694   1.414542   -0.141879
H   1.435081   1.846981   -0.107158
H   2.685692   1.642441   -0.990828
O   0.073795   -2.703378   -0.141213
H   0.077078   -3.147340   -0.990889
H   0.882039   -2.167750   -0.108172
O   2.376216   -1.286996   0.141535
H   2.316582   -0.318973   0.107270
H   2.764915   -1.504753   0.990550
O   -2.376469   1.287226   -0.141761
H   -2.315519   0.319458   -0.108263
H   -2.764235   1.505306   -0.991335
